Pcp_File_Version=4
*** BLOCK I: ATMOSPHERIC INFORMATION  **********************************
  MaxAL                    (MaxAL = number of atmospheric hydrusa-records)
2972
DailyVar  SinusVar  lLay  lBCCycles lInterc lDummy  lDummy  lDummy  lDummy  lDummy
f       f       f       f       f       f       f       f       f       f
hCritS                 (max. allowed pressure head at the soil surface)
100
tAtm        Prec       rSoil       rRoot      hCritA          rB          hB          hT    RootDepth
15	0	0	0	-1000	0	4.25669599999992	0	0
30	0	0	0	-1000	0	4.25619599999982	0	0
45	0	0	0	-1000	0	4.25569600000017	0	0
60	0	0	0	-1000	0	4.25569600000017	0	0
75	0	0	0	-1000	0	4.25569600000017	0	0
90	0	0	0	-1000	0	4.25569600000017	0	0
105	0	0	0	-1000	0	4.25569600000017	0	0
120	0	0	0	-1000	0	4.25469599999997	0	0
135	0	0	0	-1000	0	4.25469599999997	0	0
150	0	0	0	-1000	0	4.25469599999997	0	0
165	0	0	0	-1000	0	4.25469599999997	0	0
180	0	0	0	-1000	0	4.25369599999976	0	0
195	0	0	0	-1000	0	4.25469599999997	0	0
210	0	0	0	-1000	0	4.25469599999997	0	0
225	0	0	0	-1000	0	4.25469599999997	0	0
240	0	0	0	-1000	0	4.25369599999976	0	0
255	0	0	0	-1000	0	4.25069600000006	0	0
270	0	0	0	-1000	0	4.25119600000016	0	0
285	0	0	0	-1000	0	4.25169599999981	0	0
300	0	0	0	-1000	0	4.25069600000006	0	0
315	0	0	0	-1000	0	4.25069600000006	0	0
330	0	0	0	-1000	0	4.24969599999986	0	0
345	0	0	0	-1000	0	4.24869600000011	0	0
360	0	0	0	-1000	0	4.24969599999986	0	0
375	0	0	0	-1000	0	4.24869600000011	0	0
390	0	0	0	-1000	0	4.24869600000011	0	0
405	0	0	0	-1000	0	4.24869600000011	0	0
420	0	0	0	-1000	0	4.24869600000011	0	0
435	0	0	0	-1000	0	4.24769599999991	0	0
450	0	0	0	-1000	0	4.2471959999998	0	0
465	0	0	0	-1000	0	4.24669600000016	0	0
480	0	0	0	-1000	0	4.24569599999995	0	0
495	0	0	0	-1000	0	4.243696	0	0
510	0	0	0	-1000	0	4.24469599999975	0	0
525	0	0	0	-1000	0	4.24569599999995	0	0
540	0	0	0	-1000	0	4.2426959999998	0	0
555	0	0	0	-1000	0	4.24569599999995	0	0
570	0	0	0	-1000	0	4.24569599999995	0	0
585	0	0	0	-1000	0	4.24569599999995	0	0
600	0	0	0	-1000	0	4.24669600000016	0	0
615	0	0	0	-1000	0	4.24669600000016	0	0
630	0	0	0	-1000	0	4.24519599999985	0	0
645	0	0	0	-1000	0	4.243696	0	0
660	0	0	0	-1000	0	4.243696	0	0
675	0	0	0	-1000	0	4.23969600000009	0	0
690	0	0	0	-1000	0	4.23969600000009	0	0
705	0	0	0	-1000	0	4.23969600000009	0	0
720	0	0	0	-1000	0	4.23869599999989	0	0
735	0	0	0	-1000	0	4.23869599999989	0	0
750	0	0	0	-1000	0	4.23869599999989	0	0
765	0	0	0	-1000	0	4.23869599999989	0	0
780	0	0	0	-1000	0	4.23869599999989	0	0
795	0	0	0	-1000	0	4.23769600000014	0	0
810	0	0	0	-1000	0	4.23619599999984	0	0
825	0	0	0	-1000	0	4.23469599999999	0	0
840	0	0	0	-1000	0	4.23669599999994	0	0
855	0	0	0	-1000	0	4.23469599999999	0	0
870	0	0	0	-1000	0	4.23419599999988	0	0
885	0	0	0	-1000	0	4.23369599999978	0	0
900	0	0	0	-1000	0	4.23369599999978	0	0
915	0	0	0	-1000	0	4.23369599999978	0	0
930	0	0	0	-1000	0	4.23319600000013	0	0
945	0	0	0	-1000	0	4.23269600000003	0	0
960	0	0	0	-1000	0	4.23369599999978	0	0
975	0	0	0	-1000	0	4.23369599999978	0	0
990	0	0	0	-1000	0	4.23419599999988	0	0
1005	0	0	0	-1000	0	4.23469599999999	0	0
1020	0	0	0	-1000	0	4.23469599999999	0	0
1035	0	0	0	-1000	0	4.23369599999978	0	0
1050	0	0	0	-1000	0	4.23369599999978	0	0
1065	0	0	0	-1000	0	4.23369599999978	0	0
1080	0	0	0	-1000	0	4.23369599999978	0	0
1095	0	0	0	-1000	0	4.23269600000003	0	0
1110	0	0	0	-1000	0	4.23269600000003	0	0
1125	0	0	0	-1000	0	4.23269600000003	0	0
1140	0	0	0	-1000	0	4.23269600000003	0	0
1155	0	0	0	-1000	0	4.23169599999983	0	0
1170	0	0	0	-1000	0	4.23319600000013	0	0
1185	0	0	0	-1000	0	4.23469599999999	0	0
1200	0	0	0	-1000	0	4.23469599999999	0	0
1215	0	0	0	-1000	0	4.23369599999978	0	0
1230	0	0	0	-1000	0	4.23619599999984	0	0
1245	0	0	0	-1000	0	4.23869599999989	0	0
1260	0	0	0	-1000	0	4.23969600000009	0	0
1275	0	0	0	-1000	0	4.23969600000009	0	0
1290	0	0	0	-1000	0	4.2431959999999	0	0
1305	0	0	0	-1000	0	4.24669600000016	0	0
1320	0	0	0	-1000	0	4.24969599999986	0	0
1335	0	0	0	-1000	0	4.24569599999995	0	0
1350	0	0	0	-1000	0	4.24769599999991	0	0
1365	0	0	0	-1000	0	4.24969599999986	0	0
1380	0	0	0	-1000	0	4.25169599999981	0	0
1395	0	0	0	-1000	0	4.25169599999981	0	0
1410	0	0	0	-1000	0	4.25219599999991	0	0
1425	0	0	0	-1000	0	4.25269600000001	0	0
1440	0	0	0	-1000	0	4.25169599999981	0	0
1455	0	0	0	-1000	0	4.25169599999981	0	0
1470	0	0	0	-1000	0	4.25019599999996	0	0
1485	0	0	0	-1000	0	4.24869600000011	0	0
1500	0	0	0	-1000	0	4.24969599999986	0	0
1515	0	0	0	-1000	0	4.25069600000006	0	0
1530	0	0	0	-1000	0	4.25219599999991	0	0
1545	0	0	0	-1000	0	4.25369599999976	0	0
1560	0	0	0	-1000	0	4.24969599999986	0	0
1575	0	0	0	-1000	0	4.25169599999981	0	0
1590	0	0	0	-1000	0	4.25169599999981	0	0
1605	0	0	0	-1000	0	4.25169599999981	0	0
1620	0	0	0	-1000	0	4.24969599999986	0	0
1635	0	0	0	-1000	0	4.25069600000006	0	0
1650	0	0	0	-1000	0	4.25069600000006	0	0
1665	0	0	0	-1000	0	4.25069600000006	0	0
1680	0	0	0	-1000	0	4.25069600000006	0	0
1695	0	0	0	-1000	0	4.25069600000006	0	0
1710	0	0	0	-1000	0	4.25119600000016	0	0
1725	0	0	0	-1000	0	4.25169599999981	0	0
1740	0	0	0	-1000	0	4.25069600000006	0	0
1755	0	0	0	-1000	0	4.25069600000006	0	0
1770	0	0	0	-1000	0	4.24969599999986	0	0
1785	0	0	0	-1000	0	4.24869600000011	0	0
1800	0	0	0	-1000	0	4.24969599999986	0	0
1815	0	0	0	-1000	0	4.24869600000011	0	0
1830	0	0	0	-1000	0	4.24869600000011	0	0
1845	0	0	0	-1000	0	4.24869600000011	0	0
1860	0	0	0	-1000	0	4.24869600000011	0	0
1875	0	0	0	-1000	0	4.24769599999991	0	0
1890	0	0	0	-1000	0	4.24769599999991	0	0
1905	0	0	0	-1000	0	4.24769599999991	0	0
1920	0	0	0	-1000	0	4.24769599999991	0	0
1935	0	0	0	-1000	0	4.24769599999991	0	0
1950	0	0	0	-1000	0	4.24869600000011	0	0
1965	0	0	0	-1000	0	4.24969599999986	0	0
1980	0	0	0	-1000	0	4.24769599999991	0	0
1995	0	0	0	-1000	0	4.24769599999991	0	0
2010	0	0	0	-1000	0	4.24819600000001	0	0
2025	0	0	0	-1000	0	4.24869600000011	0	0
2040	0	0	0	-1000	0	4.24969599999986	0	0
2055	0	0	0	-1000	0	4.24569599999995	0	0
2070	0	0	0	-1000	0	4.2441960000001	0	0
2085	0	0	0	-1000	0	4.2426959999998	0	0
2100	0	0	0	-1000	0	4.24169600000005	0	0
2115	0	0	0	-1000	0	4.24069599999984	0	0
2130	0	0	0	-1000	0	4.24019599999974	0	0
2145	0	0	0	-1000	0	4.23969600000009	0	0
2160	0	0	0	-1000	0	4.23969600000009	0	0
2175	0	0	0	-1000	0	4.23769600000014	0	0
2190	0	0	0	-1000	0	4.23569600000019	0	0
2205	0	0	0	-1000	0	4.23369599999978	0	0
2220	0	0	0	-1000	0	4.23369599999978	0	0
2235	0	0	0	-1000	0	4.23569600000019	0	0
2250	0	0	0	-1000	0	4.23519600000009	0	0
2265	0	0	0	-1000	0	4.23469599999999	0	0
2280	0	0	0	-1000	0	4.23569600000019	0	0
2295	0	0	0	-1000	0	4.23569600000019	0	0
2310	0	0	0	-1000	0	4.23519600000009	0	0
2325	0	0	0	-1000	0	4.23469599999999	0	0
2340	0	0	0	-1000	0	4.23469599999999	0	0
2355	0	0	0	-1000	0	4.23369599999978	0	0
2370	0	0	0	-1000	0	4.23319600000013	0	0
2385	0	0	0	-1000	0	4.23269600000003	0	0
2400	0	0	0	-1000	0	4.23369599999978	0	0
2415	0	0	0	-1000	0	4.23269600000003	0	0
2430	0	0	0	-1000	0	4.23369599999978	0	0
2445	0	0	0	-1000	0	4.23469599999999	0	0
2460	0	0	0	-1000	0	4.23369599999978	0	0
2475	0	0	0	-1000	0	4.23169599999983	0	0
2490	0	0	0	-1000	0	4.23169599999983	0	0
2505	0	0	0	-1000	0	4.23169599999983	0	0
2520	0	0	0	-1000	0	4.23069600000008	0	0
2535	0	0	0	-1000	0	4.23169599999983	0	0
2550	0	0	0	-1000	0	4.23319600000013	0	0
2565	0	0	0	-1000	0	4.23469599999999	0	0
2580	0	0	0	-1000	0	4.23269600000003	0	0
2595	0	0	0	-1000	0	4.23569600000019	0	0
2610	0	0	0	-1000	0	4.23569600000019	0	0
2625	0	0	0	-1000	0	4.23569600000019	0	0
2640	0	0	0	-1000	0	4.23869599999989	0	0
2655	0	0	0	-1000	0	4.24069599999984	0	0
2670	0	0	0	-1000	0	4.2431959999999	0	0
2685	0	0	0	-1000	0	4.24569599999995	0	0
2700	0	0	0	-1000	0	4.24769599999991	0	0
2715	0	0	0	-1000	0	4.24569599999995	0	0
2730	0	0	0	-1000	0	4.24769599999991	0	0
2745	0	0	0	-1000	0	4.24969599999986	0	0
2760	0	0	0	-1000	0	4.25069600000006	0	0
2775	0	0	0	-1000	0	4.24869600000011	0	0
2790	0	0	0	-1000	0	4.24919599999976	0	0
2805	0	0	0	-1000	0	4.24969599999986	0	0
2820	0	0	0	-1000	0	4.25069600000006	0	0
2835	0	0	0	-1000	0	4.25069600000006	0	0
2850	0	0	0	-1000	0	4.25069600000006	0	0
2865	0	0	0	-1000	0	4.25069600000006	0	0
2880	0	0	0	-1000	0	4.25269600000001	0	0
2895	0	0	0	-1000	0	4.25169599999981	0	0
2910	0	0	0	-1000	0	4.25169599999981	0	0
2925	0	0	0	-1000	0	4.25169599999981	0	0
2940	0	0	0	-1000	0	4.24869600000011	0	0
2955	0	0	0	-1000	0	4.24969599999986	0	0
2970	0	0	0	-1000	0	4.24919599999976	0	0
2985	0	0	0	-1000	0	4.24869600000011	0	0
3000	0	0	0	-1000	0	4.24969599999986	0	0
3015	0	0	0	-1000	0	4.24769599999991	0	0
3030	0	0	0	-1000	0	4.2471959999998	0	0
3045	0	0	0	-1000	0	4.24669600000016	0	0
3060	0	0	0	-1000	0	4.24669600000016	0	0
3075	0	0	0	-1000	0	4.24669600000016	0	0
3090	0	0	0	-1000	0	4.24669600000016	0	0
3105	0	0	0	-1000	0	4.24669600000016	0	0
3120	0	0	0	-1000	0	4.24769599999991	0	0
3135	0	0	0	-1000	0	4.24469599999975	0	0
3150	0	0	0	-1000	0	4.24519599999985	0	0
3165	0	0	0	-1000	0	4.24569599999995	0	0
3180	0	0	0	-1000	0	4.24569599999995	0	0
3195	0	0	0	-1000	0	4.24169600000005	0	0
3210	0	0	0	-1000	0	4.24169600000005	0	0
3225	0	0	0	-1000	0	4.24169600000005	0	0
3240	0	0	0	-1000	0	4.23769600000014	0	0
3255	0	0	0	-1000	0	4.23569600000019	0	0
3270	0	0	0	-1000	0	4.23419599999988	0	0
3285	0	0	0	-1000	0	4.23269600000003	0	0
3300	0	0	0	-1000	0	4.22969599999988	0	0
3315	0	0	0	-1000	0	4.22869600000013	0	0
3330	0	0	0	-1000	0	4.22819600000003	0	0
3345	0	0	0	-1000	0	4.22769599999992	0	0
3360	0	0	0	-1000	0	4.22869600000013	0	0
3375	0	0	0	-1000	0	4.22469599999977	0	0
3390	0	0	0	-1000	0	4.22519599999987	0	0
3405	0	0	0	-1000	0	4.22569599999997	0	0
3420	0	0	0	-1000	0	4.22469599999977	0	0
3435	0	0	0	-1000	0	4.22469599999977	0	0
3450	0	0	0	-1000	0	4.22519599999987	0	0
3465	0	0	0	-1000	0	4.22569599999997	0	0
3480	0	0	0	-1000	0	4.22469599999977	0	0
3495	0	0	0	-1000	0	4.22369600000002	0	0
3510	0	0	0	-1000	0	4.22319599999992	0	0
3525	0	0	0	-1000	0	4.22269599999981	0	0
3540	0	0	0	-1000	0	4.22369600000002	0	0
3555	0	0	0	-1000	0	4.22269599999981	0	0
3570	0	0	0	-1000	0	4.22269599999981	0	0
3585	0	0	0	-1000	0	4.22269599999981	0	0
3600	0	0	0	-1000	0	4.22169600000007	0	0
3615	0	0	0	-1000	0	4.22269599999981	0	0
3630	0	0	0	-1000	0	4.22319599999992	0	0
3645	0	0	0	-1000	0	4.22369600000002	0	0
3660	0	0	0	-1000	0	4.22269599999981	0	0
3675	0	0	0	-1000	0	4.22269599999981	0	0
3690	0	0	0	-1000	0	4.22219600000017	0	0
3705	0	0	0	-1000	0	4.22169600000007	0	0
3720	0	0	0	-1000	0	4.22469599999977	0	0
3735	0	0	0	-1000	0	4.22469599999977	0	0
3750	0	0	0	-1000	0	4.22519599999987	0	0
3765	0	0	0	-1000	0	4.22569599999997	0	0
3780	0	0	0	-1000	0	4.22869600000013	0	0
3795	0	0	0	-1000	0	4.22969599999988	0	0
3810	0	0	0	-1000	0	4.23069600000008	0	0
3825	0	0	0	-1000	0	4.23169599999983	0	0
3840	0	0	0	-1000	0	4.23569600000019	0	0
3855	0	0	0	-1000	0	4.24069599999984	0	0
3870	0	0	0	-1000	0	4.24519599999985	0	0
3885	0	0	0	-1000	0	4.24969599999986	0	0
3900	0	0	0	-1000	0	4.25369599999976	0	0
3915	0	0	0	-1000	0	4.26269599999978	0	0
3930	0	0	0	-1000	0	4.26419600000008	0	0
3945	0	0	0	-1000	0	4.26569599999993	0	0
3960	0	0	0	-1000	0	4.26569599999993	0	0
3975	0	0	0	-1000	0	4.26969599999984	0	0
3990	0	0	0	-1000	0	4.27069600000004	0	0
4005	0	0	0	-1000	0	4.27169599999979	0	0
4020	0	0	0	-1000	0	4.272696	0	0
4035	0	0	0	-1000	0	4.27069600000004	0	0
4050	0	0	0	-1000	0	4.27169599999979	0	0
4065	0	0	0	-1000	0	4.272696	0	0
4080	0	0	0	-1000	0	4.26869600000009	0	0
4095	0	0	0	-1000	0	4.27069600000004	0	0
4110	0	0	0	-1000	0	4.27119600000015	0	0
4125	0	0	0	-1000	0	4.27169599999979	0	0
4140	0	0	0	-1000	0	4.26969599999984	0	0
4155	0	0	0	-1000	0	4.27169599999979	0	0
4170	0	0	0	-1000	0	4.27069600000004	0	0
4185	0	0	0	-1000	0	4.26969599999984	0	0
4200	0	0	0	-1000	0	4.27069600000004	0	0
4215	0	0	0	-1000	0	4.26769599999989	0	0
4230	0	0	0	-1000	0	4.26969599999984	0	0
4245	0	0	0	-1000	0	4.27169599999979	0	0
4260	0	0	0	-1000	0	4.27069600000004	0	0
4275	0	0	0	-1000	0	4.26969599999984	0	0
4290	0	0	0	-1000	0	4.26819599999999	0	0
4305	0	0	0	-1000	0	4.26669600000014	0	0
4320	0	0	0	-1000	0	4.26969599999984	0	0
4335	0	0	0	-1000	0	4.26769599999989	0	0
4350	0	0	0	-1000	0	4.26819599999999	0	0
4365	0	0	0	-1000	0	4.26869600000009	0	0
4380	0	0	0	-1000	0	4.26669600000014	0	0
4395	0	0	0	-1000	0	4.26369599999998	0	0
4410	0	0	0	-1000	0	4.26419600000008	0	0
4425	0	0	0	-1000	0	4.26469600000019	0	0
4440	0	0	0	-1000	0	4.26369599999998	0	0
4455	0	0	0	-1000	0	4.26169600000003	0	0
4470	0	0	0	-1000	0	4.26219600000013	0	0
4485	0	0	0	-1000	0	4.26269599999978	0	0
4500	0	0	0	-1000	0	4.25969600000008	0	0
4515	0	0	0	-1000	0	4.25969600000008	0	0
4530	0	0	0	-1000	0	4.25919599999997	0	0
4545	0	0	0	-1000	0	4.25869599999987	0	0
4560	0	0	0	-1000	0	4.25769600000012	0	0
4575	0	0	0	-1000	0	4.25869599999987	0	0
4590	0	0	0	-1000	0	4.25769600000012	0	0
4605	0	0	0	-1000	0	4.25669599999992	0	0
4620	0	0	0	-1000	0	4.25469599999997	0	0
4635	0	0	0	-1000	0	4.25469599999997	0	0
4650	0	0	0	-1000	0	4.25419599999987	0	0
4665	0	0	0	-1000	0	4.25369599999976	0	0
4680	0	0	0	-1000	0	4.25269600000001	0	0
4695	0	0	0	-1000	0	4.25169599999981	0	0
4710	0	0	0	-1000	0	4.25169599999981	0	0
4725	0	0	0	-1000	0	4.25169599999981	0	0
4740	0	0	0	-1000	0	4.24869600000011	0	0
4755	0	0	0	-1000	0	4.24769599999991	0	0
4770	0	0	0	-1000	0	4.24769599999991	0	0
4785	0	0	0	-1000	0	4.24769599999991	0	0
4800	0	0	0	-1000	0	4.24469599999975	0	0
4815	0	0	0	-1000	0	4.24569599999995	0	0
4830	0	0	0	-1000	0	4.24519599999985	0	0
4845	0	0	0	-1000	0	4.24469599999975	0	0
4860	0	0	0	-1000	0	4.24169600000005	0	0
4875	0	0	0	-1000	0	4.23769600000014	0	0
4890	0	0	0	-1000	0	4.23819599999979	0	0
4905	0	0	0	-1000	0	4.23869599999989	0	0
4920	0	0	0	-1000	0	4.23469599999999	0	0
4935	0	0	0	-1000	0	4.23369599999978	0	0
4950	0	0	0	-1000	0	4.23419599999988	0	0
4965	0	0	0	-1000	0	4.23469599999999	0	0
4980	0	0	0	-1000	0	4.23369599999978	0	0
4995	0	0	0	-1000	0	4.23169599999983	0	0
5010	0	0	0	-1000	0	4.23219599999993	0	0
5025	0	0	0	-1000	0	4.23269600000003	0	0
5040	0	0	0	-1000	0	4.23369599999978	0	0
5055	0	0	0	-1000	0	4.23469599999999	0	0
5070	0	0	0	-1000	0	4.23469599999999	0	0
5085	0	0	0	-1000	0	4.23469599999999	0	0
5100	0	0	0	-1000	0	4.23469599999999	0	0
5115	0	0	0	-1000	0	4.23769600000014	0	0
5130	0	0	0	-1000	0	4.23669599999994	0	0
5145	0	0	0	-1000	0	4.23569600000019	0	0
5160	0	0	0	-1000	0	4.23669599999994	0	0
5175	0	0	0	-1000	0	4.23969600000009	0	0
5190	0	0	0	-1000	0	4.23969600000009	0	0
5205	0	0	0	-1000	0	4.23969600000009	0	0
5220	0	0	0	-1000	0	4.243696	0	0
5235	0	0	0	-1000	0	4.24769599999991	0	0
5250	0	0	0	-1000	0	4.24869600000011	0	0
5265	0	0	0	-1000	0	4.24969599999986	0	0
5280	0	0	0	-1000	0	4.25169599999981	0	0
5295	0	0	0	-1000	0	4.25069600000006	0	0
5310	0	0	0	-1000	0	4.25169599999981	0	0
5325	0	0	0	-1000	0	4.25269600000001	0	0
5340	0	0	0	-1000	0	4.25369599999976	0	0
5355	0	0	0	-1000	0	4.25169599999981	0	0
5370	0	0	0	-1000	0	4.25219599999991	0	0
5385	0	0	0	-1000	0	4.25269600000001	0	0
5400	0	0	0	-1000	0	4.25169599999981	0	0
5415	0	0	0	-1000	0	4.25169599999981	0	0
5430	0	0	0	-1000	0	4.25219599999991	0	0
5445	0	0	0	-1000	0	4.25269600000001	0	0
5460	0	0	0	-1000	0	4.25169599999981	0	0
5475	0	0	0	-1000	0	4.25169599999981	0	0
5490	0	0	0	-1000	0	4.25269600000001	0	0
5505	0	0	0	-1000	0	4.25369599999976	0	0
5520	0	0	0	-1000	0	4.25769600000012	0	0
5535	0	0	0	-1000	0	4.26169600000003	0	0
5550	0	0	0	-1000	0	4.26469600000019	0	0
5565	0	0	0	-1000	0	4.26769599999989	0	0
5580	0	0	0	-1000	0	4.26869600000009	0	0
5595	0	0	0	-1000	0	4.27069600000004	0	0
5610	0	0	0	-1000	0	4.27169599999979	0	0
5625	0	0	0	-1000	0	4.272696	0	0
5640	0	0	0	-1000	0	4.27469599999995	0	0
5655	0	0	0	-1000	0	4.27569600000015	0	0
5670	0	0	0	-1000	0	4.27569600000015	0	0
5685	0	0	0	-1000	0	4.27569600000015	0	0
5700	0	0	0	-1000	0	4.27869599999985	0	0
5715	0	0	0	-1000	0	4.27869599999985	0	0
5730	0	0	0	-1000	0	4.27819599999975	0	0
5745	0	0	0	-1000	0	4.27769600000011	0	0
5760	0	0	0	-1000	0	4.27869599999985	0	0
5775	0	0	0	-1000	0	4.27969600000006	0	0
5790	0	0	0	-1000	0	4.27969600000006	0	0
5805	0	0	0	-1000	0	4.27969600000006	0	0
5820	0	0	0	-1000	0	4.27869599999985	0	0
5835	0	0	0	-1000	0	4.27869599999985	0	0
5850	0	0	0	-1000	0	4.27919599999996	0	0
5865	0	0	0	-1000	0	4.27969600000006	0	0
5880	0	0	0	-1000	0	4.27969600000006	0	0
5895	0	0	0	-1000	0	4.27969600000006	0	0
5910	0	0	0	-1000	0	4.27919599999996	0	0
5925	0	0	0	-1000	0	4.27869599999985	0	0
5940	0	0	0	-1000	0	4.27869599999985	0	0
5955	0	0	0	-1000	0	4.27869599999985	0	0
5970	0	0	0	-1000	0	4.277196	0	0
5985	0	0	0	-1000	0	4.27569600000015	0	0
6000	0	0	0	-1000	0	4.27469599999995	0	0
6015	0	0	0	-1000	0	4.27369599999975	0	0
6030	0	0	0	-1000	0	4.27219599999989	0	0
6045	0	0	0	-1000	0	4.27069600000004	0	0
6060	0	0	0	-1000	0	4.26669600000014	0	0
6075	0	0	0	-1000	0	4.26269599999978	0	0
6090	0	0	0	-1000	0	4.26019600000018	0	0
6105	0	0	0	-1000	0	4.25769600000012	0	0
6120	0	0	0	-1000	0	4.25469599999997	0	0
6135	0	0	0	-1000	0	4.25169599999981	0	0
6150	0	0	0	-1000	0	4.25119600000016	0	0
6165	0	0	0	-1000	0	4.25069600000006	0	0
6180	0	0	0	-1000	0	4.24969599999986	0	0
6195	0	0	0	-1000	0	4.243696	0	0
6210	0	0	0	-1000	0	4.243696	0	0
6225	0	0	0	-1000	0	4.243696	0	0
6240	0	0	0	-1000	0	4.23769600000014	0	0
6255	0	0	0	-1000	0	4.23669599999994	0	0
6270	0	0	0	-1000	0	4.23519600000009	0	0
6285	0	0	0	-1000	0	4.23369599999978	0	0
6300	0	0	0	-1000	0	4.23369599999978	0	0
6315	0	0	0	-1000	0	4.23169599999983	0	0
6330	0	0	0	-1000	0	4.23169599999983	0	0
6345	0	0	0	-1000	0	4.23169599999983	0	0
6360	0	0	0	-1000	0	4.22969599999988	0	0
6375	0	0	0	-1000	0	4.22969599999988	0	0
6390	0	0	0	-1000	0	4.22969599999988	0	0
6405	0	0	0	-1000	0	4.22969599999988	0	0
6420	0	0	0	-1000	0	4.23069600000008	0	0
6435	0	0	0	-1000	0	4.22969599999988	0	0
6450	0	0	0	-1000	0	4.22969599999988	0	0
6465	0	0	0	-1000	0	4.22969599999988	0	0
6480	0	0	0	-1000	0	4.23269600000003	0	0
6495	0	0	0	-1000	0	4.22969599999988	0	0
6510	0	0	0	-1000	0	4.23169599999983	0	0
6525	0	0	0	-1000	0	4.23369599999978	0	0
6540	0	0	0	-1000	0	4.23669599999994	0	0
6555	0	0	0	-1000	0	4.23769600000014	0	0
6570	0	0	0	-1000	0	4.23969600000009	0	0
6585	0	0	0	-1000	0	4.24169600000005	0	0
6600	0	0	0	-1000	0	4.24469599999975	0	0
6615	0	0	0	-1000	0	4.24469599999975	0	0
6630	0	0	0	-1000	0	4.2471959999998	0	0
6645	0	0	0	-1000	0	4.24969599999986	0	0
6660	0	0	0	-1000	0	4.25369599999976	0	0
6675	0	0	0	-1000	0	4.25469599999997	0	0
6690	0	0	0	-1000	0	4.26019600000018	0	0
6705	0	0	0	-1000	0	4.26569599999993	0	0
6720	0	0	0	-1000	0	4.27369599999975	0	0
6735	0	0	0	-1000	0	4.28169600000001	0	0
6750	0	0	0	-1000	0	4.28369599999996	0	0
6765	0	0	0	-1000	0	4.28569599999992	0	0
6780	0	0	0	-1000	0	4.29069600000003	0	0
6795	0	0	0	-1000	0	4.29169599999977	0	0
6810	0	0	0	-1000	0	4.28819599999997	0	0
6825	0	0	0	-1000	0	4.28469600000017	0	0
6840	0	0	0	-1000	0	4.28069599999981	0	0
6855	0	0	0	-1000	0	4.27869599999985	0	0
6870	0	0	0	-1000	0	4.277196	0	0
6885	0	0	0	-1000	0	4.27569600000015	0	0
6900	0	0	0	-1000	0	4.27369599999975	0	0
6915	0	0	0	-1000	0	4.27569600000015	0	0
6930	0	0	0	-1000	0	4.27569600000015	0	0
6945	0	0	0	-1000	0	4.27569600000015	0	0
6960	0	0	0	-1000	0	4.27469599999995	0	0
6975	0	0	0	-1000	0	4.272696	0	0
6990	0	0	0	-1000	0	4.272696	0	0
7005	0	0	0	-1000	0	4.272696	0	0
7020	0	0	0	-1000	0	4.27369599999975	0	0
7035	0	0	0	-1000	0	4.27569600000015	0	0
7050	0	0	0	-1000	0	4.28069599999981	0	0
7065	0	0	0	-1000	0	4.28569599999992	0	0
7080	0	0	0	-1000	0	4.29469599999993	0	0
7095	0	0	0	-1000	0	4.30169599999999	0	0
7110	0	0	0	-1000	0	4.30319599999984	0	0
7125	0	0	0	-1000	0	4.30469600000015	0	0
7140	0	0	0	-1000	0	4.30769599999985	0	0
7155	0	0	0	-1000	0	4.31269599999996	0	0
7170	0	0	0	-1000	0	4.31469599999991	0	0
7185	0	0	0	-1000	0	4.31669599999987	0	0
7200	0	0	0	-1000	0	4.31869599999982	0	0
7215	0	0	0	-1000	0	4.32269600000018	0	0
7230	0	0	0	-1000	0	4.32369599999993	0	0
7245	0	0	0	-1000	0	4.32469600000013	0	0
7260	0	0	0	-1000	0	4.32769599999983	0	0
7275	0	0	0	-1000	0	4.32569599999988	0	0
7290	0	0	0	-1000	0	4.32719600000019	0	0
7305	0	0	0	-1000	0	4.32869600000004	0	0
7320	0	0	0	-1000	0	4.33069599999999	0	0
7335	0	0	0	-1000	0	4.33069599999999	0	0
7350	0	0	0	-1000	0	4.33269599999994	0	0
7365	0	0	0	-1000	0	4.33469599999989	0	0
7380	0	0	0	-1000	0	4.33469599999989	0	0
7395	0	0	0	-1000	0	4.3356960000001	0	0
7410	0	0	0	-1000	0	4.335196	0	0
7425	0	0	0	-1000	0	4.33469599999989	0	0
7440	0	0	0	-1000	0	4.3386959999998	0	0
7455	0	0	0	-1000	0	4.33769600000005	0	0
7470	0	0	0	-1000	0	4.33819600000015	0	0
7485	0	0	0	-1000	0	4.3386959999998	0	0
7500	0	0	0	-1000	0	4.3386959999998	0	0
7515	0	0	0	-1000	0	4.34069599999975	0	0
7530	0	0	0	-1000	0	4.34069599999975	0	0
7545	0	0	0	-1000	0	4.34069599999975	0	0
7560	0	0	0	-1000	0	4.34169599999996	0	0
7575	0	0	0	-1000	0	4.34069599999975	0	0
7590	0	0	0	-1000	0	4.34119599999985	0	0
7605	0	0	0	-1000	0	4.34169599999996	0	0
7620	0	0	0	-1000	0	4.34369599999991	0	0
7635	0	0	0	-1000	0	4.34369599999991	0	0
7650	0	0	0	-1000	0	4.34319599999981	0	0
7665	0	0	0	-1000	0	4.34269600000016	0	0
7680	0	0	0	-1000	0	4.34369599999991	0	0
7695	0	0	0	-1000	0	4.34269600000016	0	0
7710	0	0	0	-1000	0	4.34319599999981	0	0
7725	0	0	0	-1000	0	4.34369599999991	0	0
7740	0	0	0	-1000	0	4.34669600000007	0	0
7755	0	0	0	-1000	0	4.34469600000011	0	0
7770	0	0	0	-1000	0	4.34569599999986	0	0
7785	0	0	0	-1000	0	4.34669600000007	0	0
7800	0	0	0	-1000	0	4.34869600000002	0	0
7815	0	0	0	-1000	0	4.34769599999981	0	0
7830	0	0	0	-1000	0	4.34719600000017	0	0
7845	0	0	0	-1000	0	4.34669600000007	0	0
7860	0	0	0	-1000	0	4.34569599999986	0	0
7875	0	0	0	-1000	0	4.3356960000001	0	0
7890	0	0	0	-1000	0	4.32619599999998	0	0
7905	0	0	0	-1000	0	4.31669599999987	0	0
7920	0	0	0	-1000	0	4.3066960000001	0	0
7935	0	0	0	-1000	0	4.29869599999984	0	0
7950	0	0	0	-1000	0	4.29669599999988	0	0
7965	0	0	0	-1000	0	4.29469599999993	0	0
7980	0	0	0	-1000	0	4.28969599999982	0	0
7995	0	0	0	-1000	0	4.28669600000012	0	0
8010	0	0	0	-1000	0	4.28469600000017	0	0
8025	0	0	0	-1000	0	4.28269599999976	0	0
8040	0	0	0	-1000	0	4.28269599999976	0	0
8055	0	0	0	-1000	0	4.27969600000006	0	0
8070	0	0	0	-1000	0	4.27919599999996	0	0
8085	0	0	0	-1000	0	4.27869599999985	0	0
8100	0	0	0	-1000	0	4.27469599999995	0	0
8115	0	0	0	-1000	0	4.272696	0	0
8130	0	0	0	-1000	0	4.2731960000001	0	0
8145	0	0	0	-1000	0	4.27369599999975	0	0
8160	0	0	0	-1000	0	4.27169599999979	0	0
8175	0	0	0	-1000	0	4.27169599999979	0	0
8190	0	0	0	-1000	0	4.27069600000004	0	0
8205	0	0	0	-1000	0	4.26969599999984	0	0
8220	0	0	0	-1000	0	4.26969599999984	0	0
8235	0	0	0	-1000	0	4.26769599999989	0	0
8250	0	0	0	-1000	0	4.26769599999989	0	0
8265	0	0	0	-1000	0	4.26769599999989	0	0
8280	0	0	0	-1000	0	4.27069600000004	0	0
8295	0	0	0	-1000	0	4.28369599999996	0	0
8310	0	0	0	-1000	0	4.29069600000003	0	0
8325	0	0	0	-1000	0	4.29769600000009	0	0
8340	0	0	0	-1000	0	4.30769599999985	0	0
8355	0	0	0	-1000	0	4.31469599999991	0	0
8370	0	0	0	-1000	0	4.31819600000017	0	0
8385	0	0	0	-1000	0	4.32169599999997	0	0
8400	0	0	0	-1000	0	4.32269600000018	0	0
8415	0	0	0	-1000	0	4.32769599999983	0	0
8430	0	0	0	-1000	0	4.32869600000004	0	0
8445	0	0	0	-1000	0	4.32969599999979	0	0
8460	0	0	0	-1000	0	4.33369600000015	0	0
8475	0	0	0	-1000	0	4.33669599999985	0	0
8490	0	0	0	-1000	0	4.33669599999985	0	0
8505	0	0	0	-1000	0	4.33669599999985	0	0
8520	0	0	0	-1000	0	4.33669599999985	0	0
8535	0	0	0	-1000	0	4.34069599999975	0	0
8550	0	0	0	-1000	0	4.34119599999985	0	0
8565	0	0	0	-1000	0	4.34169599999996	0	0
8580	0	0	0	-1000	0	4.34069599999975	0	0
8595	0	0	0	-1000	0	4.34169599999996	0	0
8610	0	0	0	-1000	0	4.34269600000016	0	0
8625	0	0	0	-1000	0	4.34369599999991	0	0
8640	0	0	0	-1000	0	4.34569599999986	0	0
8655	0	0	0	-1000	0	4.34569599999986	0	0
8670	0	0	0	-1000	0	4.34569599999986	0	0
8685	0	0	0	-1000	0	4.34569599999986	0	0
8700	0	0	0	-1000	0	4.34469600000011	0	0
8715	0	0	0	-1000	0	4.34669600000007	0	0
8730	0	0	0	-1000	0	4.34719600000017	0	0
8745	0	0	0	-1000	0	4.34769599999981	0	0
8760	0	0	0	-1000	0	4.34769599999981	0	0
8775	0	0	0	-1000	0	4.34769599999981	0	0
8790	0	0	0	-1000	0	4.34719600000017	0	0
8805	0	0	0	-1000	0	4.34669600000007	0	0
8820	0	0	0	-1000	0	4.34669600000007	0	0
8835	0	0	0	-1000	0	4.34569599999986	0	0
8850	0	0	0	-1000	0	4.34619599999996	0	0
8865	0	0	0	-1000	0	4.34669600000007	0	0
8880	0	0	0	-1000	0	4.34569599999986	0	0
8895	0	0	0	-1000	0	4.34469600000011	0	0
8910	0	0	0	-1000	0	4.34469600000011	0	0
8925	0	0	0	-1000	0	4.34469600000011	0	0
8940	0	0	0	-1000	0	4.34369599999991	0	0
8955	0	0	0	-1000	0	4.34169599999996	0	0
8970	0	0	0	-1000	0	4.34119599999985	0	0
8985	0	0	0	-1000	0	4.34069599999975	0	0
9000	0	0	0	-1000	0	4.34069599999975	0	0
9015	0	0	0	-1000	0	4.34069599999975	0	0
9030	0	0	0	-1000	0	4.33819600000015	0	0
9045	0	0	0	-1000	0	4.3356960000001	0	0
9060	0	0	0	-1000	0	4.3356960000001	0	0
9075	0	0	0	-1000	0	4.33369600000015	0	0
9090	0	0	0	-1000	0	4.33369600000015	0	0
9105	0	0	0	-1000	0	4.33369600000015	0	0
9120	0	0	0	-1000	0	4.33069599999999	0	0
9135	0	0	0	-1000	0	4.32769599999983	0	0
9150	0	0	0	-1000	0	4.32669600000008	0	0
9165	0	0	0	-1000	0	4.32569599999988	0	0
9180	0	0	0	-1000	0	4.32069599999977	0	0
9195	0	0	0	-1000	0	4.31769600000007	0	0
9210	0	0	0	-1000	0	4.31219599999986	0	0
9225	0	0	0	-1000	0	4.3066960000001	0	0
9240	0	0	0	-1000	0	4.29869599999984	0	0
9255	0	0	0	-1000	0	4.28969599999982	0	0
9270	0	0	0	-1000	0	4.28569599999992	0	0
9285	0	0	0	-1000	0	4.28169600000001	0	0
9300	0	0	0	-1000	0	4.28069599999981	0	0
9315	0	0	0	-1000	0	4.2766959999999	0	0
9330	0	0	0	-1000	0	4.27469599999995	0	0
9345	0	0	0	-1000	0	4.272696	0	0
9360	0	0	0	-1000	0	4.26869600000009	0	0
9375	0	0	0	-1000	0	4.26369599999998	0	0
9390	0	0	0	-1000	0	4.26419600000008	0	0
9405	0	0	0	-1000	0	4.26469600000019	0	0
9420	0	0	0	-1000	0	4.25969600000008	0	0
9435	0	0	0	-1000	0	4.25869599999987	0	0
9450	0	0	0	-1000	0	4.25819599999977	0	0
9465	0	0	0	-1000	0	4.25769600000012	0	0
9480	0	0	0	-1000	0	4.25569600000017	0	0
9495	0	0	0	-1000	0	4.25369599999976	0	0
9510	0	0	0	-1000	0	4.25369599999976	0	0
9525	0	0	0	-1000	0	4.25369599999976	0	0
9540	0	0	0	-1000	0	4.25269600000001	0	0
9555	0	0	0	-1000	0	4.25169599999981	0	0
9570	0	0	0	-1000	0	4.25219599999991	0	0
9585	0	0	0	-1000	0	4.25269600000001	0	0
9600	0	0	0	-1000	0	4.25169599999981	0	0
9615	0	0	0	-1000	0	4.24969599999986	0	0
9630	0	0	0	-1000	0	4.25069600000006	0	0
9645	0	0	0	-1000	0	4.25169599999981	0	0
9660	0	0	0	-1000	0	4.25269600000001	0	0
9675	0	0	0	-1000	0	4.25269600000001	0	0
9690	0	0	0	-1000	0	4.25569600000017	0	0
9705	0	0	0	-1000	0	4.25869599999987	0	0
9720	0	0	0	-1000	0	4.26969599999984	0	0
9735	0	0	0	-1000	0	4.27869599999985	0	0
9750	0	0	0	-1000	0	4.28219600000011	0	0
9765	0	0	0	-1000	0	4.28569599999992	0	0
9780	0	0	0	-1000	0	4.29069600000003	0	0
9795	0	0	0	-1000	0	4.29469599999993	0	0
9810	0	0	0	-1000	0	4.29719599999999	0	0
9825	0	0	0	-1000	0	4.29969600000004	0	0
9840	0	0	0	-1000	0	4.30169599999999	0	0
9855	0	0	0	-1000	0	4.30469600000015	0	0
9870	0	0	0	-1000	0	4.3066960000001	0	0
9885	0	0	0	-1000	0	4.30869600000005	0	0
9900	0	0	0	-1000	0	4.31169599999976	0	0
9915	0	0	0	-1000	0	4.31169599999976	0	0
9930	0	0	0	-1000	0	4.31319600000006	0	0
9945	0	0	0	-1000	0	4.31469599999991	0	0
9960	0	0	0	-1000	0	4.31669599999987	0	0
9975	0	0	0	-1000	0	4.31669599999987	0	0
9990	0	0	0	-1000	0	4.31769600000007	0	0
10005	0	0	0	-1000	0	4.31869599999982	0	0
10020	0	0	0	-1000	0	4.31969600000002	0	0
10035	0	0	0	-1000	0	4.32069599999977	0	0
10050	0	0	0	-1000	0	4.32019600000012	0	0
10065	0	0	0	-1000	0	4.31969600000002	0	0
10080	0	0	0	-1000	0	4.32369599999993	0	0
10095	0	0	0	-1000	0	4.32369599999993	0	0
10110	0	0	0	-1000	0	4.32369599999993	0	0
10125	0	0	0	-1000	0	4.32369599999993	0	0
10140	0	0	0	-1000	0	4.32369599999993	0	0
10155	0	0	0	-1000	0	4.32469600000013	0	0
10170	0	0	0	-1000	0	4.32519599999978	0	0
10185	0	0	0	-1000	0	4.32569599999988	0	0
10200	0	0	0	-1000	0	4.32269600000018	0	0
10215	0	0	0	-1000	0	4.32269600000018	0	0
10230	0	0	0	-1000	0	4.32119599999987	0	0
10245	0	0	0	-1000	0	4.31969600000002	0	0
10260	0	0	0	-1000	0	4.31769600000007	0	0
10275	0	0	0	-1000	0	4.31369600000016	0	0
10290	0	0	0	-1000	0	4.30919600000016	0	0
10305	0	0	0	-1000	0	4.30469600000015	0	0
10320	0	0	0	-1000	0	4.29469599999993	0	0
10335	0	0	0	-1000	0	4.28469600000017	0	0
10350	0	0	0	-1000	0	4.28069599999981	0	0
10365	0	0	0	-1000	0	4.2766959999999	0	0
10380	0	0	0	-1000	0	4.26869600000009	0	0
10395	0	0	0	-1000	0	4.26069599999983	0	0
10410	0	0	0	-1000	0	4.25819599999977	0	0
10425	0	0	0	-1000	0	4.25569600000017	0	0
10440	0	0	0	-1000	0	4.24769599999991	0	0
10455	0	0	0	-1000	0	4.243696	0	0
10470	0	0	0	-1000	0	4.2431959999999	0	0
10485	0	0	0	-1000	0	4.2426959999998	0	0
10500	0	0	0	-1000	0	4.23869599999989	0	0
10515	0	0	0	-1000	0	4.23369599999978	0	0
10530	0	0	0	-1000	0	4.23269600000003	0	0
10545	0	0	0	-1000	0	4.23169599999983	0	0
10560	0	0	0	-1000	0	4.22969599999988	0	0
10575	0	0	0	-1000	0	4.22669600000017	0	0
10590	0	0	0	-1000	0	4.22569599999997	0	0
10605	0	0	0	-1000	0	4.22469599999977	0	0
10620	0	0	0	-1000	0	4.22369600000002	0	0
10635	0	0	0	-1000	0	4.21969600000011	0	0
10650	0	0	0	-1000	0	4.21969600000011	0	0
10665	0	0	0	-1000	0	4.21969600000011	0	0
10680	0	0	0	-1000	0	4.21969600000011	0	0
10695	0	0	0	-1000	0	4.21669599999996	0	0
10710	0	0	0	-1000	0	4.21869599999991	0	0
10725	0	0	0	-1000	0	4.22069599999986	0	0
10740	0	0	0	-1000	0	4.21769600000016	0	0
10755	0	0	0	-1000	0	4.21969600000011	0	0
10770	0	0	0	-1000	0	4.21869599999991	0	0
10785	0	0	0	-1000	0	4.21769600000016	0	0
10800	0	0	0	-1000	0	4.21569599999975	0	0
10815	0	0	0	-1000	0	4.21569599999975	0	0
10830	0	0	0	-1000	0	4.21619599999985	0	0
10845	0	0	0	-1000	0	4.21669599999996	0	0